/*--------------------------------*- C++ -*----------------------------------*\
  =========                 |
  \\      /  F ield         | OpenFOAM: The Open Source CFD Toolbox
   \\    /   O peration     | Website:  https://openfoam.org
    \\  /    A nd           | Version:  7
     \\/     M anipulation  |
\*---------------------------------------------------------------------------*/
FoamFile
{
    version     2.0;
    format      ascii;
    class       volScalarField;
    object      p_rgh;
}
// * * * * * * * * * * * * * * * * * * * * * * * * * * * * * * * * * * * * * //

dimensions      [1 -1 -2 0 0 0 0];

internalField   uniform 1e05;

boundaryField
{
    cylinder
    {
        type            fixedFluxPressure;
        value           $internalField;
    }
    topWall
    {
        type            fixedFluxPressure;
        value           $internalField;
    }
    topOut
    {
        type            zeroGradient; //totalPressure;
//        p0              $internalField;
    }
    sides
    {
        type            totalPressure;
        p0              $internalField;
    }
    frontAndBack
    {
        type            empty;
    }
    bottom
    {
        type            totalPressure;
        p0              $internalField;
    }

    #includeEtc "caseDicts/setConstraintTypes"
}

// ************************************************************************* //
