/*--------------------------------*- C++ -*----------------------------------*\
  =========                 |
  \\      /  F ield         | OpenFOAM: The Open Source CFD Toolbox
   \\    /   O peration     | Website:  https://openfoam.org
    \\  /    A nd           | Version:  7
     \\/     M anipulation  |
\*---------------------------------------------------------------------------*/
FoamFile
{
    version     2.0;
    format      ascii;
    class       dictionary;
    location    "system";
    object      controlDict;
}
// * * * * * * * * * * * * * * * * * * * * * * * * * * * * * * * * * * * * * //

application     buoyantPimpleFoam;

startFrom       latestTime;

startTime       0;

stopAt          endTime;

endTime         100;

deltaT          0.002;

writeControl    adjustableRunTime;

writeInterval   10;

purgeWrite      0;

writeFormat     ascii;

writePrecision  9;

writeCompression on;

timeFormat      general;

timePrecision   6;

runTimeModifiable true;

adjustTimeStep  yes;

maxCo           1;

functions
{
    fieldAverage
    {
        type            fieldAverage;
        libs            ("libfieldFunctionObjects.so");
        writeControl    writeTime;
        timeStart       100;

        fields
        (
            U
            {
                mean        on;
                prime2Mean  on;
                base        time;   
            }
            
            T
            {
                mean        on;
                prime2Mean  on;
                base        time;   
            }            
        );
    }

	heatFlux
	{
		type            grad;
		libs            ("libfieldFunctionObjects.so");
		field           T;
		writeControl    runTime;
		writeInterval   10;		
	}

	magHeatFlux
	{
		type            mag;
		libs            ("libfieldFunctionObjects.so");
		field           grad(T);
		writeControl    runTime;
		writeInterval   10;		
	}

	fluxAverage
	{
		name cylinder;
		fields (mag(grad(T)));

		operation     areaAverage;
		#includeEtc "caseDicts/postProcessing/surfaceFieldValue/patch.cfg"
		writeControl    runTime;
		writeInterval   10;
	}  


   TmeanTopWall
	{
		type            surfaceFieldValue;
		libs            ("libfieldFunctionObjects.so");
		writeControl    runTime;
		writeInterval   10;
		log             no;
		writeTotalArea  no;
		writeFields     no;
		regionType      patch;	
		name            topWall;
		operation       areaAverage;
		fields          (T);
		//#includeEtc "caseDicts/postProcessing/surfaceFieldValue/patch.cfg"
		//writeControl  timeStep;
		//writeInterval 10;
	}
	
	residuals
	{
		#includeEtc "caseDicts/postProcessing/numerical/residuals.cfg"
		fields (p_rgh h);	
	}
	
	probes
	{
		#includeEtc "caseDicts/postProcessing/probes/probes.cfg"

		fields (U T);
		probeLocations
		(
			(0.0 0.12 0.0)
			(-0.18 0.12 0.0)
		);

		interpolationScheme  cellPoint;
		writeControl         runTime;
		writeInterval        0.1;	
	}

	#includeFunc profileCyl

	profileX0
	{
		type    sets;
		libs    ("libsampling.so");

		fields               (T mag(grad(T)) TMean U UMean);
		interpolationScheme  cellPoint;
		setFormat            raw;
		writeControl         runTime;
		writeInterval        10;
				
		sets
		(
			line
			{
				type   lineCell;
				start  (-0.8 0.105 0.0);
				end    (0.8 0.105 0.0);
				axis   xyz;				
			}
		);		
	}
	
	profileX1
	{
		type    sets;
		libs    ("libsampling.so");

		fields               (T mag(grad(T)) TMean U UMean);
		interpolationScheme  cellPoint;
		setFormat            raw;
		writeControl         runTime;
		writeInterval        10;
				
		sets
		(
			line
			{
				type   lineCell;
				start  (-0.8 0.12 0.0);
				end    (0.8 0.12 0.0);
				axis   xyz;				
			}
		);		
	}
	
	profileX2
	{
		type    sets;
		libs    ("libsampling.so");

		fields               (T mag(grad(T)) TMean U UMean);
		interpolationScheme  cellPoint;
		setFormat            raw;
		writeControl         runTime;
		writeInterval        10;
				
		sets
		(
			line
			{
				type   lineCell;
				start  (-0.8 0.13 0.0);
				end    (0.8 0.13 0.0);
				axis   xyz;				
			}
		);		
	}
	
	profileY0
	{
		type    sets;
		libs    ("libsampling.so");

		fields               (T mag(grad(T)) TMean U UMean);
		interpolationScheme  cellPoint;
		setFormat            raw;
		writeControl         runTime;
		writeInterval        10;
				
		sets
		(
			line
			{
				type   lineCell;
				start  (0.0 0.0  0.0);
				end    (0.0 0.14 0.0);
				axis   xyz;				
			}
		);		
	}

	profileY1
	{
		type    sets;
		libs    ("libsampling.so");

		fields               (T mag(grad(T)) TMean U UMean);
		interpolationScheme  cellPoint;
		setFormat            raw;
		writeControl         runTime;
		writeInterval        10;
				
		sets
		(
			line
			{
				type   lineCell;
				start  (0.02 0.0  0.0);
				end    (0.02 0.14 0.0);
				axis   xyz;				
			}
		);		
	}
	
	profileY2
	{
		type    sets;
		libs    ("libsampling.so");

		fields               (T mag(grad(T)) TMean U UMean);
		interpolationScheme  cellPoint;
		setFormat            raw;
		writeControl         runTime;
		writeInterval        10;
				
		sets
		(
			line
			{
				type   lineCell;
				start  (-0.02 0.0  0.0);
				end    (-0.02 0.14 0.0);
				axis   xyz;				
			}
		);		
	}

	profileY3
	{
		type    sets;
		libs    ("libsampling.so");

		fields               (T mag(grad(T)) TMean U UMean);
		interpolationScheme  cellPoint;
		setFormat            raw;
		writeControl         runTime;
		writeInterval        10;
				
		sets
		(
			line
			{
				type   lineCell;
				start  (0.03 0.0  0.0);
				end    (0.03 0.14 0.0);
				axis   xyz;				
			}
		);		
	}
	
	profileY4
	{
		type    sets;
		libs    ("libsampling.so");

		fields               (T mag(grad(T)) TMean U UMean);
		interpolationScheme  cellPoint;
		setFormat            raw;
		writeControl         runTime;
		writeInterval        10;
				
		sets
		(
			line
			{
				type   lineCell;
				start  (0.08 0.0 0.0);
				end    (0.08 0.14 0.0);
				axis   xyz;				
			}
		);		
	}

	profileY5
	{
		type    sets;
		libs    ("libsampling.so");

		fields               (T mag(grad(T)) TMean U UMean);
		interpolationScheme  cellPoint;
		setFormat            raw;
		writeControl         runTime;
		writeInterval        10;
				
		sets
		(
			line
			{
				type   lineCell;
				start  (0.7 -0.7 0.0);
				end    (0.7 0.14 0.0);
				axis   xyz;				
			}
		);		
	}	
}
// ************************************************************************* //
