/*--------------------------------*- C++ -*----------------------------------*\
  =========                 |
  \\      /  F ield         | OpenFOAM: The Open Source CFD Toolbox
   \\    /   O peration     | Website:  https://openfoam.org
    \\  /    A nd           | Version:  7
     \\/     M anipulation  |
\*---------------------------------------------------------------------------*/
FoamFile
{
    version     2.0;
    format      ascii;
    class       dictionary;
    location    "constant";
    object      thermophysicalProperties;
}
// * * * * * * * * * * * * * * * * * * * * * * * * * * * * * * * * * * * * * //
thermoType
{
    type            heRhoThermo;
    mixture         pureMixture;
    transport       sutherland;
    thermo          hConst;
    equationOfState perfectGas;
    specie          specie;
    energy          sensibleEnthalpy;
}

mixture
{
    specie
    {
        molWeight       28.96;
    }/*
    equationOfState
    {
        T0              300;
        rho0            1.176;
        beta            0.00322;
    }*/
    thermodynamics
    {
        Cp              1005;
        Hf              0;
    }
    transport
    {
       // mu              1.85e-05;
       // Pr              0.69;
        As              1.4792e-06;
        Ts              116;
    }
}


// ************************************************************************* //
